#######################################################################
#                                                                     #
#  Excavation of cohesionless soil supported by a cantilevered sheet  #
#  pile wall.  2D Plane Strain analysis.  Beam elements define the    #
#  wall, and beam-contact elements are used to create a frictional    #
#  soil-pile interface. Initial state analysis is used to create      #
#  an initial state of stress and strain due to gravity without the   #
#  corresponding displacements.                                       #
#                                                                     #
#   Created by:  Chris McGann                                         #
#                Pedro Arduino                                        #
#              --University of Washington--                           #
#                                                                     #
# ---> Basic units are kN and m                                       #
#                                                                     #
#######################################################################

wipe

#-----------------------------------------------------------------------------------------
#  1. CREATE SOIL NODES AND FIXITIES
#-----------------------------------------------------------------------------------------
model BasicBuilder -ndm 2 -ndf 2

# define soil nodes
node        1      -5.250      0.000
node        2      -5.250      0.500
node        3      -4.750      0.000
node        4      -4.750      0.500
node        5      -4.250      0.000
node        6      -5.250      1.000
node        7      -4.750      1.000
node        8      -4.250      0.500
node        9      -4.250      1.000
node       10      -5.250      1.500
node       11      -3.750      0.000
node       12      -4.750      1.500
node       13      -3.750      0.500
node       14      -3.750      1.000
node       15      -4.250      1.500
node       16      -3.250      0.000
node       17      -5.250      2.000
node       18      -4.750      2.000
node       19      -3.250      0.500
node       20      -3.750      1.500
# ... 442 like lines cut
puts "Finished creating all -ndf 2 soil nodes..."

# define fixities for soil nodes
fix     1   1   1
fix     2   1   0
fix     3   0   1
fix     5   0   1
fix     6   1   0
fix    10   1   0
fix    11   0   1
fix    16   0   1
fix    17   1   0
fix    23   1   0
fix    24   0   1
fix    34   1   0
fix    35   0   1
fix    44   1   0
fix    45   0   1
fix    57   1   0
fix    58   0   1
fix    72   0   1
fix    73   1   0
fix    87   1   0
# ... 42 like lines cut
puts "Finished creating all -ndf 2 boundary conditions..."

#-----------------------------------------------------------------------------------------
#  2. DESIGNATE LIST OF PERMANENT NODES (NEVER REMOVED) FOR RECORDERS
#-----------------------------------------------------------------------------------------

set mNodeInfo [open NodesInfoPerm.dat w]
puts $mNodeInfo "       1      -5.250      0.000"
puts $mNodeInfo "       2      -5.250      0.500"
puts $mNodeInfo "       3      -4.750      0.000"
puts $mNodeInfo "       4      -4.750      0.500"
puts $mNodeInfo "       5      -4.250      0.000"
puts $mNodeInfo "       6      -5.250      1.000"
puts $mNodeInfo "       7      -4.750      1.000"
puts $mNodeInfo "       8      -4.250      0.500"
puts $mNodeInfo "       9      -4.250      1.000"
puts $mNodeInfo "      10      -5.250      1.500"
puts $mNodeInfo "      11      -3.750      0.000"
puts $mNodeInfo "      12      -4.750      1.500"
puts $mNodeInfo "      13      -3.750      0.500"
puts $mNodeInfo "      14      -3.750      1.000"
puts $mNodeInfo "      15      -4.250      1.500"
puts $mNodeInfo "      16      -3.250      0.000"
puts $mNodeInfo "      17      -5.250      2.000"
puts $mNodeInfo "      18      -4.750      2.000"
puts $mNodeInfo "      19      -3.250      0.500"
puts $mNodeInfo "      20      -3.750      1.500"
# ... 354 like lines cut
close $mNodeInfo

#-----------------------------------------------------------------------------------------
#  3. CREATE LAGRANGE MULTIPLIER NODES FOR BEAM CONTACT ELEMENTS
#-----------------------------------------------------------------------------------------

for {set k 1} {$k <= 42} {incr k 1} {
	node [expr 1000+$k]  0.00 0.00
}
puts "Finished creating all -ndf 2 nodes..."

#-----------------------------------------------------------------------------------------
#  4. CREATE SOIL MATERIALS
#-----------------------------------------------------------------------------------------

# define pressure depended material for soil
nDMaterial PressureDependMultiYield02 5 2 1.8 9.6e3 2.7e4 36 0.1 \
                                      101.0 0.0 26 0.067 0.23 0.06 \
                                      0.27 20 5.0 3.0 1.0 \
                                      0.0 0.77 0.9 0.02 0.7 101.0
# element thickness
set thick1 1.0
# body force in x-direction
set xWgt1  0.00
# body force in y-direction
set yWgt1  [expr -9.81*1.8]

# create wrapper material for initial state analysis
nDMaterial InitialStateAnalysisWrapper 1 5 2

puts "Finished creating all soil materials..."

#-----------------------------------------------------------------------------------------
#  5. CREATE SOIL ELEMENTS
#-----------------------------------------------------------------------------------------

element quad 1 109 130 131 112  $thick1 PlaneStrain 1 0.0 0.0 $xWgt1 $yWgt1
element quad 2 130 152 157 131  $thick1 PlaneStrain 1 0.0 0.0 $xWgt1 $yWgt1
element quad 3 152 178 180 157  $thick1 PlaneStrain 1 0.0 0.0 $xWgt1 $yWgt1
element quad 4 178 205 207 180  $thick1 PlaneStrain 1 0.0 0.0 $xWgt1 $yWgt1
element quad 5 205 229 231 207  $thick1 PlaneStrain 1 0.0 0.0 $xWgt1 $yWgt1
element quad 6 229 256 261 231  $thick1 PlaneStrain 1 0.0 0.0 $xWgt1 $yWgt1
element quad 7 256 286 293 261  $thick1 PlaneStrain 1 0.0 0.0 $xWgt1 $yWgt1
element quad 8 286 319 321 293  $thick1 PlaneStrain 1 0.0 0.0 $xWgt1 $yWgt1
element quad 9 319 352 355 321  $thick1 PlaneStrain 1 0.0 0.0 $xWgt1 $yWgt1
element quad 10 352 383 385 355  $thick1 PlaneStrain 1 0.0 0.0 $xWgt1 $yWgt1
element quad 11 112 131 138 116  $thick1 PlaneStrain 1 0.0 0.0 $xWgt1 $yWgt1
element quad 12 131 157 161 138  $thick1 PlaneStrain 1 0.0 0.0 $xWgt1 $yWgt1
element quad 13 157 180 181 161  $thick1 PlaneStrain 1 0.0 0.0 $xWgt1 $yWgt1
element quad 14 180 207 209 181  $thick1 PlaneStrain 1 0.0 0.0 $xWgt1 $yWgt1
element quad 15 207 231 233 209  $thick1 PlaneStrain 1 0.0 0.0 $xWgt1 $yWgt1
element quad 16 231 261 266 233  $thick1 PlaneStrain 1 0.0 0.0 $xWgt1 $yWgt1
element quad 17 261 293 295 266  $thick1 PlaneStrain 1 0.0 0.0 $xWgt1 $yWgt1
element quad 18 293 321 324 295  $thick1 PlaneStrain 1 0.0 0.0 $xWgt1 $yWgt1
element quad 19 321 355 356 324  $thick1 PlaneStrain 1 0.0 0.0 $xWgt1 $yWgt1
element quad 20 355 385 388 356  $thick1 PlaneStrain 1 0.0 0.0 $xWgt1 $yWgt1
# ... 380 like lines cut
puts "Finished creating all soil elements..."

# create list of permanent elements with connectivities for post-processing
set eleFile [open SolidElementInfo.dat w]
puts $eleFile "       1       109       130       131       112"
puts $eleFile "       2       130       152       157       131"
puts $eleFile "       3       152       178       180       157"
puts $eleFile "       4       178       205       207       180"
puts $eleFile "       5       205       229       231       207"
puts $eleFile "       6       229       256       261       231"
puts $eleFile "       7       256       286       293       261"
puts $eleFile "       8       286       319       321       293"
puts $eleFile "       9       319       352       355       321"
puts $eleFile "      10       352       383       385       355"
puts $eleFile "      11       112       131       138       116"
puts $eleFile "      12       131       157       161       138"
puts $eleFile "      13       157       180       181       161"
puts $eleFile "      14       180       207       209       181"
puts $eleFile "      15       207       231       233       209"
puts $eleFile "      16       231       261       266       233"
puts $eleFile "      17       261       293       295       266"
puts $eleFile "      18       293       321       324       295"
puts $eleFile "      19       321       355       356       324"
puts $eleFile "      20       355       385       388       356"
# ... 280 like lines cut
close $eleFile

#-----------------------------------------------------------------------------------------
#  6. CREATE BEAM NODES AND FIXITIES
#-----------------------------------------------------------------------------------------
model BasicBuilder -ndm 2 -ndf 3

# define beam nodes
node       99       0.000      0.250
node      100       0.000     -0.250
node      101       0.000      0.750
node      106       0.000      1.250
node      113       0.000      1.750
node      123       0.000      2.250
node      128       0.000      2.750
node      141       0.000      3.250
node      151       0.000      3.750
node      168       0.000      4.250
node      184       0.000      4.750
node      197       0.000      5.250
node      219       0.000      5.750
node      242       0.000      6.250
node      264       0.000      6.750
node      285       0.000      7.250
node      311       0.000      7.750
node      338       0.000      8.250
node      368       0.000      8.750
node      396       0.000      9.250
node      417       0.000      9.750
node      435       0.000     10.250
puts "Finished creating all -ndf 3 beam nodes..."

# create list of beam nodes and locations for post-processing
set bNodeInfo [open NodesInfo3.dat w]
puts $bNodeInfo "      99       0.000      0.250"
puts $bNodeInfo "     100       0.000     -0.250"
puts $bNodeInfo "     101       0.000      0.750"
puts $bNodeInfo "     106       0.000      1.250"
puts $bNodeInfo "     113       0.000      1.750"
puts $bNodeInfo "     123       0.000      2.250"
puts $bNodeInfo "     128       0.000      2.750"
puts $bNodeInfo "     141       0.000      3.250"
puts $bNodeInfo "     151       0.000      3.750"
puts $bNodeInfo "     168       0.000      4.250"
puts $bNodeInfo "     184       0.000      4.750"
puts $bNodeInfo "     197       0.000      5.250"
puts $bNodeInfo "     219       0.000      5.750"
puts $bNodeInfo "     242       0.000      6.250"
puts $bNodeInfo "     264       0.000      6.750"
puts $bNodeInfo "     285       0.000      7.250"
puts $bNodeInfo "     311       0.000      7.750"
puts $bNodeInfo "     338       0.000      8.250"
puts $bNodeInfo "     368       0.000      8.750"
puts $bNodeInfo "     396       0.000      9.250"
puts $bNodeInfo "     417       0.000      9.750"
puts $bNodeInfo "     435       0.000     10.250"
close $bNodeInfo

# fix the base node of the sheetpile in the vertial direction
fix   100   0 1 0
puts "Finished creating all -ndf 3 boundary conditions..."

#-----------------------------------------------------------------------------------------
#  7. CREATE BEAM MATERIALS
#-----------------------------------------------------------------------------------------

# beam properties
set thick      0.5
set area       0.5
set I          9.75e-4
set beamE      200000000
set numIntPts  3
set transTag   1
set secTag     1

# geometric transformation
geomTransf Linear  $transTag

# beam section
section Elastic  $secTag $beamE $area $I

puts "Finished creating all beam materials..."

#-----------------------------------------------------------------------------------------
#  8. CREATE BEAM ELEMENTS
#-----------------------------------------------------------------------------------------

element dispBeamColumn 401 100 99  $numIntPts $secTag $transTag
element dispBeamColumn 402 99  101 $numIntPts $secTag $transTag
element dispBeamColumn 403 101 106 $numIntPts $secTag $transTag
element dispBeamColumn 404 106 113 $numIntPts $secTag $transTag
element dispBeamColumn 405 113 123 $numIntPts $secTag $transTag
element dispBeamColumn 406 123 128 $numIntPts $secTag $transTag
element dispBeamColumn 407 128 141 $numIntPts $secTag $transTag
element dispBeamColumn 408 141 151 $numIntPts $secTag $transTag
element dispBeamColumn 409 151 168 $numIntPts $secTag $transTag
element dispBeamColumn 410 168 184 $numIntPts $secTag $transTag
element dispBeamColumn 411 184 197 $numIntPts $secTag $transTag
element dispBeamColumn 412 197 219 $numIntPts $secTag $transTag
element dispBeamColumn 413 219 242 $numIntPts $secTag $transTag
element dispBeamColumn 414 242 264 $numIntPts $secTag $transTag
element dispBeamColumn 415 264 285 $numIntPts $secTag $transTag
element dispBeamColumn 416 285 311 $numIntPts $secTag $transTag
element dispBeamColumn 417 311 338 $numIntPts $secTag $transTag
element dispBeamColumn 418 338 368 $numIntPts $secTag $transTag
element dispBeamColumn 419 368 396 $numIntPts $secTag $transTag
element dispBeamColumn 420 396 417 $numIntPts $secTag $transTag
element dispBeamColumn 421 417 435 $numIntPts $secTag $transTag
puts "Finished creating all beam elements..."

# create list of beam elements with connectivities for post-processing
set beamInfo [open beamElementInfo.dat w]
puts $beamInfo " 401 100 99 "
puts $beamInfo " 402 99 101 "
puts $beamInfo " 403 101 106 "
puts $beamInfo " 404 106 113 "
puts $beamInfo " 405 113 123 "
puts $beamInfo " 406 123 128 "
puts $beamInfo " 407 128 141 "
puts $beamInfo " 408 141 151 "
puts $beamInfo " 409 151 168 "
puts $beamInfo " 410 168 184 "
puts $beamInfo " 411 184 197 "
puts $beamInfo " 412 197 219 "
puts $beamInfo " 413 219 242 "
puts $beamInfo " 414 242 264 "
puts $beamInfo " 415 264 285 "
puts $beamInfo " 416 285 311 "
puts $beamInfo " 417 311 338 "
puts $beamInfo " 418 338 368 "
puts $beamInfo " 419 368 396 "
puts $beamInfo " 420 396 417 "
puts $beamInfo " 421 417 435 "
close $beamInfo

#-----------------------------------------------------------------------------------------
#  9. CREATE CONTACT MATERIAL FOR BEAM CONTACT ELEMENTS 
#-----------------------------------------------------------------------------------------

# two-dimensional contact material
nDMaterial ContactMaterial2D  2  0.1 1000.0 0.0 0.0

puts "Finished creating all contact materials..."

#-----------------------------------------------------------------------------------------
#  10. CREATE BEAM CONTACT ELEMENTS
#-----------------------------------------------------------------------------------------

# set gap and force tolerances for beam contact elements
set gapTol    1.0e-10
set forceTol  1.0e-10

# define beam contact elements
element BeamContact2D 1001  100  99  88 1001  2 $thick $gapTol $forceTol
element BeamContact2D 1002  100  99 109 1002  2 $thick $gapTol $forceTol
element BeamContact2D 1003   99 101  92 1003  2 $thick $gapTol $forceTol
element BeamContact2D 1004   99 101 112 1004  2 $thick $gapTol $forceTol
element BeamContact2D 1005  101 106  93 1005  2 $thick $gapTol $forceTol
element BeamContact2D 1006  101 106 116 1006  2 $thick $gapTol $forceTol
element BeamContact2D 1007  106 113  98 1007  2 $thick $gapTol $forceTol
element BeamContact2D 1008  106 113 119 1008  2 $thick $gapTol $forceTol
element BeamContact2D 1009  113 123 105 1009  2 $thick $gapTol $forceTol
element BeamContact2D 1010  113 123 126 1010  2 $thick $gapTol $forceTol
element BeamContact2D 1011  123 128 115 1011  2 $thick $gapTol $forceTol
element BeamContact2D 1012  123 128 135 1012  2 $thick $gapTol $forceTol
element BeamContact2D 1013  128 141 125 1013  2 $thick $gapTol $forceTol
element BeamContact2D 1014  128 141 144 1014  2 $thick $gapTol $forceTol
element BeamContact2D 1015  141 151 139 1015  2 $thick $gapTol $forceTol
element BeamContact2D 1016  141 151 158 1016  2 $thick $gapTol $forceTol
element BeamContact2D 1017  151 168 150 1017  2 $thick $gapTol $forceTol
element BeamContact2D 1018  151 168 171 1018  2 $thick $gapTol $forceTol
element BeamContact2D 1019  168 184 166 1019  2 $thick $gapTol $forceTol
element BeamContact2D 1020  168 184 185 1020  2 $thick $gapTol $forceTol
# ... 22 like lines cut
puts "Finished creating all beam-contact elements..."

# create list of permanent beam contact elements with connectivities for post-process
set beamContactInfo [open beamContactInfo.dat w]
puts $beamContactInfo "1001  100  99  88 1001  "
puts $beamContactInfo "1002  100  99 109 1002  "
puts $beamContactInfo "1003   99 101  92 1003  "
puts $beamContactInfo "1004   99 101 112 1004  "
puts $beamContactInfo "1005  101 106  93 1005  "
puts $beamContactInfo "1006  101 106 116 1006  "
puts $beamContactInfo "1007  106 113  98 1007  "
puts $beamContactInfo "1008  106 113 119 1008  "
puts $beamContactInfo "1009  113 123 105 1009  "
puts $beamContactInfo "1010  113 123 126 1010  "
puts $beamContactInfo "1011  123 128 115 1011  "
puts $beamContactInfo "1012  123 128 135 1012  "
puts $beamContactInfo "1013  128 141 125 1013  "
puts $beamContactInfo "1014  128 141 144 1014  "
puts $beamContactInfo "1015  141 151 139 1015  "
puts $beamContactInfo "1016  141 151 158 1016  "
puts $beamContactInfo "1017  151 168 150 1017  "
puts $beamContactInfo "1018  151 168 171 1018  "
puts $beamContactInfo "1019  168 184 166 1019  "
puts $beamContactInfo "1020  168 184 185 1020  "
# ... 12 like lines cut
close $beamContactInfo

#-----------------------------------------------------------------------------------------
#  11. CREATE RECORDER LISTS USING PREVIOUSLY DEFINED NODAL/ELEMENTAL DATA
#-----------------------------------------------------------------------------------------

# permanent soil node list
set nodeListPerm {}
set channel [open "NodesInfoPerm.dat" r]
set ctr 0;
foreach line [split [read -nonewline $channel] \n] {
set ctr0 [expr $ctr+1];
set lineData($ctr) $line
set nodeNumber [lindex $lineData($ctr) 0]
lappend nodeListPerm $nodeNumber        
}
close $channel

# permanent soil element list
set solidElementList {}
set channel [open "SolidElementInfo.dat" r]
set ctr 0;
foreach line [split [read -nonewline $channel] \n] {
set ctr0 [expr $ctr+1];
set lineData($ctr) $line
set elementNumber [lindex $lineData($ctr) 0]
lappend solidElementList $elementNumber        
}
close $channel

# beam element list
set BeamElementList {}
set channel [open "beamElementInfo.dat" r]
set ctr 0;
foreach line [split [read -nonewline $channel] \n] {
set ctr0 [expr $ctr+1];
set lineData($ctr) $line
set elementNumber [lindex $lineData($ctr) 0]
lappend BeamElementList $elementNumber        
}
close $channel

# permanent beam contact element list
set BCElemList {}
set channel [open "beamContactInfo.dat" r]
set ctr 0;
foreach line [split [read -nonewline $channel] \n] {
set ctr0 [expr $ctr+1];
set lineData($ctr) $line
set elementNumber [lindex $lineData($ctr) 0]
lappend BCElemList $elementNumber 
}
close $channel

#-----------------------------------------------------------------------------------------
#  13. CREATE RECORDERS
#-----------------------------------------------------------------------------------------

# PERMANENT RECORDERS---------------------------------------------------------------------
# record nodal displacments at permanent nodes
eval "recorder Node -file displacement.out -time -node $nodeListPerm -dof 1 2  disp"
# record elemental stress in the soil at permanent elements
eval "recorder Element -file stress1.out   -time  -ele $solidElementList  material 1 stress"
eval "recorder Element -file stress2.out   -time  -ele $solidElementList  material 2 stress"
eval "recorder Element -file stress3.out   -time  -ele $solidElementList  material 3 stress"
eval "recorder Element -file stress4.out   -time  -ele $solidElementList  material 4 stress"
# record permanent contact element information
eval "recorder Element  -file slaveForce.out  -time  -ele $BCElemList  forces"
eval "recorder Element  -file frictForce.out  -time  -ele $BCElemList  frictionforces"
eval "recorder Element  -file contForce.out   -time  -ele $BCElemList  forcescalars"
eval "recorder Element  -file mastForce.out   -time  -ele $BCElemList  masterforces"
# record beam response
eval "recorder Element -file globalForces.out -time -ele $BeamElementList globalForce"

# RECORDERS FOR EXCAVATED MATERIAL (TO BE REMOVED)---------------------------------------
file mkdir ./lift1
file mkdir ./lift2
file mkdir ./lift3
file mkdir ./lift4
file mkdir ./lift5
file mkdir ./lift6
file mkdir ./lift7
file mkdir ./lift8
file mkdir ./lift9
file mkdir ./lift10
# excavation lift 1
recorder Node -file lift1/disp.out -time -node 430 437 446 455 461 468 473 476 480 482 484 -dof 1 2 disp
recorder Element -file lift1/stress1.out -time -eleRange 191 200 material 1 stress
recorder Element -file lift1/stress2.out -time -eleRange 191 200 material 2 stress
recorder Element -file lift1/stress3.out -time -eleRange 191 200 material 3 stress
recorder Element -file lift1/stress4.out -time -eleRange 191 200 material 4 stress
recorder Element -file lift1/slaveForce.out -time -ele 1042 forces
recorder Element -file lift1/frictForce.out -time -ele 1042 frictionforces
recorder Element -file lift1/contForce.out  -time -ele 1042 forcescalars
recorder Element -file lift1/mastForce.out  -time -ele 1042 masterforces
# excavation lift 2
recorder Node -file lift2/disp.out -time -node 412 424 433 444 453 460 466 471 475 479 483 -dof 1 2 disp
recorder Element -file lift2/stress1.out -time -eleRange 181 190 material 1 stress
recorder Element -file lift2/stress2.out -time -eleRange 181 190 material 2 stress
recorder Element -file lift2/stress3.out -time -eleRange 181 190 material 3 stress
recorder Element -file lift2/stress4.out -time -eleRange 181 190 material 4 stress
recorder Element -file lift2/slaveForce.out -time -ele 1040 forces
recorder Element -file lift2/frictForce.out -time -ele 1040 frictionforces
recorder Element -file lift2/contForce.out  -time -ele 1040 forcescalars
recorder Element -file lift2/mastForce.out  -time -ele 1040 masterforces
# excavation lift 3
recorder Node -file lift3/disp.out -time -node 387 405 418 429 442 450 458 464 470 477 481 -dof 1 2 disp
recorder Element -file lift3/stress1.out -time -eleRange 171 180 material 1 stress
recorder Element -file lift3/stress2.out -time -eleRange 171 180 material 2 stress
recorder Element -file lift3/stress3.out -time -eleRange 171 180 material 3 stress
recorder Element -file lift3/stress4.out -time -eleRange 171 180 material 4 stress
recorder Element -file lift3/slaveForce.out -time -ele 1038 forces
recorder Element -file lift3/frictForce.out -time -ele 1038 frictionforces
recorder Element -file lift3/contForce.out  -time -ele 1038 forcescalars
recorder Element -file lift3/mastForce.out  -time -ele 1038 masterforces
# excavation lift 4
recorder Node -file lift4/disp.out -time -node 363 380 398 414 427 439 448 457 465 472 478 -dof 1 2 disp
recorder Element -file lift4/stress1.out -time -eleRange 161 170 material 1 stress
recorder Element -file lift4/stress2.out -time -eleRange 161 170 material 2 stress
recorder Element -file lift4/stress3.out -time -eleRange 161 170 material 3 stress
recorder Element -file lift4/stress4.out -time -eleRange 161 170 material 4 stress
recorder Element -file lift4/slaveForce.out -time -ele 1036 forces
recorder Element -file lift4/frictForce.out -time -ele 1036 frictionforces
recorder Element -file lift4/contForce.out  -time -ele 1036 forcescalars
recorder Element -file lift4/mastForce.out  -time -ele 1036 masterforces
# excavation lift 5
recorder Node -file lift5/disp.out -time -node 336 353 378 395 411 425 440 449 459 467 474 -dof 1 2 disp
recorder Element -file lift5/stress1.out -time -eleRange 151 160 material 1 stress
recorder Element -file lift5/stress2.out -time -eleRange 151 160 material 2 stress
recorder Element -file lift5/stress3.out -time -eleRange 151 160 material 3 stress
recorder Element -file lift5/stress4.out -time -eleRange 151 160 material 4 stress
recorder Element -file lift5/slaveForce.out -time -ele 1034 forces
recorder Element -file lift5/frictForce.out -time -ele 1034 frictionforces
recorder Element -file lift5/contForce.out  -time -ele 1034 forcescalars
recorder Element -file lift5/mastForce.out  -time -ele 1034 masterforces
# excavation lift 6
recorder Node -file lift6/disp.out -time -node 308 326 347 369 392 408 426 441 452 462 469 -dof 1 2 disp
recorder Element -file lift6/stress1.out -time -eleRange 141 150 material 1 stress
recorder Element -file lift6/stress2.out -time -eleRange 141 150 material 2 stress
recorder Element -file lift6/stress3.out -time -eleRange 141 150 material 3 stress
recorder Element -file lift6/stress4.out -time -eleRange 141 150 material 4 stress
recorder Element -file lift6/slaveForce.out -time -ele 1032 forces
recorder Element -file lift6/frictForce.out -time -ele 1032 frictionforces
recorder Element -file lift6/contForce.out  -time -ele 1032 forcescalars
recorder Element -file lift6/mastForce.out  -time -ele 1032 masterforces
# excavation lift 7
recorder Node -file lift7/disp.out -time -node 281 304 322 345 370 394 415 428 443 454 463 -dof 1 2 disp
recorder Element -file lift7/stress1.out -time -eleRange 131 140 material 1 stress
recorder Element -file lift7/stress2.out -time -eleRange 131 140 material 2 stress
recorder Element -file lift7/stress3.out -time -eleRange 131 140 material 3 stress
recorder Element -file lift7/stress4.out -time -eleRange 131 140 material 4 stress
recorder Element -file lift7/slaveForce.out -time -ele 1030 forces
recorder Element -file lift7/frictForce.out -time -ele 1030 frictionforces
recorder Element -file lift7/contForce.out  -time -ele 1030 forcescalars
recorder Element -file lift7/mastForce.out  -time -ele 1030 masterforces
# excavation lift 8
recorder Node -file lift8/disp.out -time -node 260 278 302 325 346 374 399 419 434 447 456 -dof 1 2 disp
recorder Element -file lift8/stress1.out -time -eleRange 121 130 material 1 stress
recorder Element -file lift8/stress2.out -time -eleRange 121 130 material 2 stress
recorder Element -file lift8/stress3.out -time -eleRange 121 130 material 3 stress
recorder Element -file lift8/stress4.out -time -eleRange 121 130 material 4 stress
recorder Element -file lift8/slaveForce.out -time -ele 1028 forces
recorder Element -file lift8/frictForce.out -time -ele 1028 frictionforces
recorder Element -file lift8/contForce.out  -time -ele 1028 forcescalars
recorder Element -file lift8/mastForce.out  -time -ele 1028 masterforces
# excavation lift 9
recorder Node -file lift9/disp.out -time -node 241 253 277 306 327 350 379 406 422 438 451 -dof 1 2 disp
recorder Element -file lift9/stress1.out -time -eleRange 111 120 material 1 stress
recorder Element -file lift9/stress2.out -time -eleRange 111 120 material 2 stress
recorder Element -file lift9/stress3.out -time -eleRange 111 120 material 3 stress
recorder Element -file lift9/stress4.out -time -eleRange 111 120 material 4 stress
recorder Element -file lift9/slaveForce.out -time -ele 1026 forces
recorder Element -file lift9/frictForce.out -time -ele 1026 frictionforces
recorder Element -file lift9/contForce.out  -time -ele 1026 forcescalars
recorder Element -file lift9/mastForce.out  -time -ele 1026 masterforces
# excavation lift 10
recorder Node -file lift10/disp.out -time -node 218 239 259 282 307 335 364 389 413 431 445 -dof 1 2 disp
recorder Element -file lift10/stress1.out -time -eleRange 101 110 material 1 stress
recorder Element -file lift10/stress2.out -time -eleRange 101 110 material 2 stress
recorder Element -file lift10/stress3.out -time -eleRange 101 110 material 3 stress
recorder Element -file lift10/stress4.out -time -eleRange 101 110 material 4 stress
recorder Element -file lift10/slaveForce.out -time -ele 1024 forces
recorder Element -file lift10/frictForce.out -time -ele 1024 frictionforces
recorder Element -file lift10/contForce.out  -time -ele 1024 forcescalars
recorder Element -file lift10/mastForce.out  -time -ele 1024 masterforces

puts "Finished creating recorders..."

#-----------------------------------------------------------------------------------------
#  12. GRAVITY ANALYSIS (w/ INITIAL STATE ANALYSIS TO RESET DISPLACEMENTS)
#-----------------------------------------------------------------------------------------

# define analysis parameters for gravity phase
constraints Transformation
test        NormDispIncr 1e-5 15 1
algorithm   Newton
numberer    RCM
system      SparseGeneral
integrator  LoadControl 1
analysis    Static

# turn on initial state analysis feature
InitialStateAnalysis on

# ensure soil material intially considers linear elastic behavior
updateMaterialStage -material 1 -stage 0

# set contact elements to be frictionless for gravity analysis
setParameter -value 0 -eleRange 1001 1042 friction

set startT  [clock seconds]
analyze     4

# update soil material to consider elastoplastic behavior and analyze a few more steps
updateMaterialStage -material 1 -stage 1

analyze 4

# designate end of initial state analysis (zeros displacements, keeps state variables)
InitialStateAnalysis off

# turn on frictional behavior for beam contact elements
setParameter -value 1 -eleRange 1001 1042 friction

#-----------------------------------------------------------------------------------------
#  14. REMOVE ELEMENTS TO SIMULATE EXCAVATION
#-----------------------------------------------------------------------------------------

# define analysis parameters for excavation phase
constraints Transformation
test        NormDispIncr 1e-4 60 1
algorithm   KrylovNewton
numberer    RCM
system      SparseGeneral
integrator  LoadControl 1
analysis    Static

# remove objects associated with lift 1-----------------------------------
# recorders
set recCount 10
for {set k 0} {$k <= 8} {incr k 1} {
	remove recorder [expr $recCount + $k]
}
set recCount [expr $recCount + $k]
# soil elements
for {set k 1} {$k <= 10} {incr k 1} {
	remove element [expr 190+$k]
}
# contact element
remove element 1042
# lagrange multiplier node
remove node 1042
# soil nodes
remove node 430 
remove node 437 
remove node 446 
remove node 455 
remove node 461 
remove node 468 
remove node 473 
remove node 476 
remove node 480 
remove node 482 
remove node 484

# run analysis after object removal
analyze 4

# remove objects associated with lift 2-----------------------------------
# recorders
for {set k 0} {$k <= 8} {incr k 1} {
	remove recorder [expr $recCount + $k]
}
set recCount [expr $recCount + $k]
# soil elements
for {set k 1} {$k <= 10} {incr k 1} {
	remove element [expr 180+$k]
}
# contact element
remove element 1040
# lagrange multiplier node
remove node 1040
# soil nodes
remove node 412 
remove node 424 
remove node 433 
remove node 444 
remove node 453 
remove node 460 
remove node 466 
remove node 471 
remove node 475 
remove node 479 
remove node 483

# run analysis after object removal
analyze 4

# remove objects associated with lift 3-----------------------------------
# recorders
for {set k 0} {$k <= 8} {incr k 1} {
	remove recorder [expr $recCount + $k]
}
set recCount [expr $recCount + $k]
# soil elements
for {set k 1} {$k <= 10} {incr k 1} {
	remove element [expr 170+$k]
}
# contact element
remove element 1038
# lagrange multiplier node
remove node 1038
# soil nodes
remove node 387 
remove node 405 
remove node 418 
remove node 429 
remove node 442 
remove node 450 
remove node 458 
remove node 464 
remove node 470 
remove node 477 
remove node 481

# run analysis after object removal
analyze 4

# remove objects associated with lift 4-----------------------------------
# recorders
for {set k 0} {$k <= 8} {incr k 1} {
	remove recorder [expr $recCount + $k]
}
set recCount [expr $recCount + $k]
# soil elements
for {set k 1} {$k <= 10} {incr k 1} {
	remove element [expr 160+$k]
}
# contact element
remove element 1036
# lagrange multiplier node
remove node 1036
# soil nodes
remove node 363 
remove node 380 
remove node 398 
remove node 414 
remove node 427 
remove node 439 
remove node 448 
remove node 457 
remove node 465 
remove node 472 
remove node 478

# run analysis after object removal
analyze 4

# remove objects associated with lift 5-----------------------------------
# recorders
for {set k 0} {$k <= 8} {incr k 1} {
	remove recorder [expr $recCount + $k]
}
set recCount [expr $recCount + $k]
# soil elements
for {set k 1} {$k <= 10} {incr k 1} {
	remove element [expr 150+$k]
}
# contact element
remove element 1034
# lagrange multiplier node
remove node 1034
# soil nodes
remove node 336 
remove node 353 
remove node 378 
remove node 395 
remove node 411 
remove node 425 
remove node 440 
remove node 449 
remove node 459 
remove node 467 
remove node 474

# run analysis after object removal
analyze 4

# remove objects associated with lift 6-----------------------------------
# recorders
for {set k 0} {$k <= 8} {incr k 1} {
	remove recorder [expr $recCount + $k]
}
set recCount [expr $recCount + $k]
# soil elements
for {set k 1} {$k <= 10} {incr k 1} {
	remove element [expr 140+$k]
}
# contact element
remove element 1032
# lagrange multiplier node
remove node 1032
# soil nodes
remove node 308 
remove node 326 
remove node 347 
remove node 369 
remove node 392 
remove node 408 
remove node 426 
remove node 441 
remove node 452 
remove node 462 
remove node 469

# run analysis after object removal
analyze 4

# remove objects associated with lift 7-----------------------------------
# recorders
for {set k 0} {$k <= 8} {incr k 1} {
	remove recorder [expr $recCount + $k]
}
set recCount [expr $recCount + $k]
# soil elements
for {set k 1} {$k <= 10} {incr k 1} {
	remove element [expr 130+$k]
}
# contact element
remove element 1030
# lagrange multiplier node
remove node 1030
# soil nodes
remove node 281 
remove node 304 
remove node 322 
remove node 345 
remove node 370 
remove node 394 
remove node 415 
remove node 428 
remove node 443 
remove node 454 
remove node 463

# run analysis after object removal
analyze 4

# remove objects associated with lift 8-----------------------------------
# recorders
for {set k 0} {$k <= 8} {incr k 1} {
	remove recorder [expr $recCount + $k]
}
set recCount [expr $recCount + $k]
# soil elements
for {set k 1} {$k <= 10} {incr k 1} {
	remove element [expr 120+$k]
}
# contact element
remove element 1028
# lagrange multiplier node
remove node 1028
# soil nodes
remove node 260 
remove node 278 
remove node 302 
remove node 325 
remove node 346 
remove node 374 
remove node 399 
remove node 419 
remove node 434 
remove node 447 
remove node 456

# run analysis after object removal
analyze 4

# remove objects associated with lift 9-----------------------------------
# recorders
for {set k 0} {$k <= 8} {incr k 1} {
	remove recorder [expr $recCount + $k]
}
set recCount [expr $recCount + $k]
# soil elements
for {set k 1} {$k <= 10} {incr k 1} {
	remove element [expr 110+$k]
}
# contact element
remove element 1026
# lagrange multiplier node
remove node 1026
# soil nodes
remove node 241 
remove node 253 
remove node 277 
remove node 306 
remove node 327 
remove node 350 
remove node 379 
remove node 406 
remove node 422 
remove node 438 
remove node 451

# run analysis after object removal
analyze 4

# remove objects associated with lift 10----------------------------------
# recorders
for {set k 0} {$k <= 8} {incr k 1} {
	remove recorder [expr $recCount + $k]
}
set recCount [expr $recCount + $k]
# soil elements
for {set k 1} {$k <= 10} {incr k 1} {
	remove element [expr 100+$k]
}
# contact element
remove element 1024
# lagrange multiplier node
remove node 1024
# soil nodes
remove node 218 
remove node 239 
remove node 259 
remove node 282 
remove node 307 
remove node 335 
remove node 364 
remove node 389 
remove node 413 
remove node 431 
remove node 445

# run analysis after object removal
analyze 4

# excavation analysis complete
set endT    [clock seconds]
puts "Analysis execution time: [expr $endT-$startT] seconds"

wipe
